/*--------------------------------*- C++ -*----------------------------------*\
| =========                 |                                                 |
| \\      /  F ield         | OpenFOAM: The Open Source CFD Toolbox           |
|  \\    /   O peration     | Version:  4.x                                   |
|   \\  /    A nd           | Web:      www.OpenFOAM.org                      |
|    \\/     M anipulation  |                                                 |
\*---------------------------------------------------------------------------*/
FoamFile
{
    version     2.0;
    format      ascii;
    class       dictionary;
    object      motionProperties;
}
// * * * * * * * * * * * * * * * * * * * * * * * * * * * * * * * * * * * * * //

dynamicFvMesh       dynamicMotionSolverFvMesh;

motionSolverLibs   ("librigidBodyMeshMotion.so");

solver             rigidBodyMotion;

rigidBodyMotionCoeffs
{
    report          on;

    solver
    {
        type Newmark;
    }

    accelerationRelaxation 0.7;

    bodies
    {
        floatingObject
        {
            type            sphere;
            parent          root;

            // sphere dimensions
            radius           0.3;
          
            // Density of the cuboid
            rho             500;

            // Cuboid mass
            mass            #calc "$rho*4/3*3.14*$radius*$radius*$radius";
            centreOfMass    (1.5 1.5 1.5);
            transform       (1 0 0 0 1 0 0 0 1) (0.5 0.45 0.1);

            joint
            {
                type            composite;
                joints
                (
                    {
                        type Py;
                    }
                    {
                        type Ry;
                    }
                );
            }

            patches         (floatingObject);
            innerDistance   0.5;
            outerDistance   0.85;
        }
    }
}


// ************************************************************************* //
